%chk=CH2O.chk
%nproc=24
#p M062X/6-31g** opt freq

Title Card Required

0 1
 C                 -1.97674408   -1.67958654    0.00000000
 H                 -1.44358033   -2.60729146    0.00000000
 H                 -3.04674408   -1.67958654    0.00000000
 O                 -1.34970365   -0.58853619    0.00000000


