%chk=irc.chk
%nprocshared=24
#p irc=(maxpoints=30,calcfc) 6-31g(d,p) m062x

Title Card Required

0 1
 C                 -0.00003300    0.66297300    0.00000000
 H                  1.01594600    1.12141200    0.00000000
 O                 -0.00003300   -0.63097600    0.00000000
 H                 -1.01548200   -0.05144200    0.00000000

