%chk=ts.chk
%nprocshared=24
#p opt=(calcfc,ts,noeigen) freq 6-31g(d,p) m062x

Title Card Required

0 1
 C                 -0.01114700    0.74229800    0.00000000
 H                  1.08732200    0.96430300    0.00000000
 O                 -0.01114700   -0.56812900    0.00000000
 H                 -1.06477995    0.01595977    0.00000000

