%chk=w3.chk
# hf/3-21g geom=connectivity

Title Card Required

0 1
 O                  0.19817074   -0.51829268    0.00000000
 H                  1.15817074   -0.51829268    0.00000000
 H                 -0.12228384    0.38664316    0.00000000
 O                  0.93464214   -2.72932478   -0.01060247
 H                  1.89464214   -2.72932478   -0.01060247
 H                  0.61418755   -1.82438895   -0.01060247
 O                 -2.12168859   -0.50476048   -0.36052675
 H                 -1.16168859   -0.50476048   -0.36052675
 H                 -2.44214318    0.40017535   -0.36052675

 1 2 1.0 3 1.0
 2
 3
 4 5 1.0 6 1.0
 5
 6
 7 8 1.0 9 1.0
 8
 9

