%chk=1.chk
%nproc=24
#p M062X/def2tzvp opt

te

0 1
 O                 -0.01042600    1.25416500    0.01503400
 H                  0.54851920    1.65764514    0.68315378
 H                  0.43267179    1.28804378   -0.83591640
 O                 -2.34449251    2.59904007   -0.14205421
 H                 -3.06577278    2.03055170    0.13754505
 H                 -2.32297553    3.38384161    0.41041621
 O                 -0.51085700   -1.42235706    0.70254299
 H                 -1.46581301   -1.48862429    0.62996420
 H                 -0.25341379   -1.50534924    1.62364846
 H                 -0.18129635    0.33934813    0.25064684
 H                 -0.84159863    1.73162295   -0.03774823

