%chk=1.chk
%nprocshared=24
#p m062x/def2qzvp pop=(mk,chelpg)

te

0 1
 O                 -0.01042600    1.25416500    0.01503400
 O                 -2.39356158    2.62313095   -0.13630305
 H                 -2.47210196    3.21893960    0.61232467
 H                 -2.44536781    3.12607707   -0.95236757
 O                 -0.50068157   -1.37059739    0.69104659
 H                 -1.15565115   -1.72201955    0.08349631
 H                 -0.85318949   -1.39212685    1.58372494
 H                 -0.18129635    0.33934813    0.25064684
 H                 -0.84159863    1.73162295   -0.03774823

