%chk=E:\2019fall\TCCNotes\CMS\0925\Ni.chk
# hf/3-21g geom=connectivity

Title Card Required

0 1
 C                 -4.90098325    2.00304799    5.42413604
 C                 -4.89724417    0.64252176    5.38095976
 C                 -6.06556706    2.68497570    5.53426558
 C                 -7.26884202    1.98110892    5.53569216
 C                 -7.26218499    0.62823313    5.48210917
 C                 -6.05368589   -0.05351860    5.42370469
 C                 -5.99430169    4.05340606    5.62513353
 C                 -7.13209848    4.76382094    5.67559412
 C                 -8.56505538    3.92221027    5.63627098
 C                 -8.49776020    2.58717046    5.58394939
 C                 -8.48053931   -0.00013659    5.48680261
 C                 -8.52362688   -1.33734747    5.42611038
 C                 -7.07542544   -2.15188851    5.38009508
 C                 -5.95536000   -1.42065041    5.39427079
 N                 -7.20897395    6.16783360    5.74962951
 Ni                -8.93091416    6.17239361    5.81604336
 N                 -9.75700448    4.66907213    5.65304386
 N                 -9.70063782   -2.10774232    5.39649572
 Ni                -8.84335086   -3.59601051    5.25271657
 N                 -7.12260235   -3.55643549    5.33243348
 C                 -3.72586048   -0.03780466    5.26960067
 C                 -2.58304621    0.65918370    5.11466285
 C                 -2.58460810    2.01017452    5.14389683
 C                 -3.73060046    2.69094901    5.34380127
 N                 -1.43697302    0.11036843    4.91599702
 Ni                -0.15763860    1.32769543    4.40428272
 N                 -1.41942426    2.55573248    4.95703543
 N                  1.08998624    0.11239197    3.85670468
 C                  2.02452616    0.69286016    3.20423060
 C                  1.98308690    2.06445056    3.21311275
 N                  1.09923096    2.55073378    3.81591810
 C                  2.98652078    0.03161462    2.54856776
 C                  3.87656670    0.76138380    1.85343754
 C                  3.79327064    2.11171001    1.89040432
 C                  2.81173806    2.72072073    2.62008279
 C                  4.82570975    0.13685213    1.13119418
 C                  5.72844658    0.89222264    0.39761901
 C                  5.65533012    2.24263590    0.43100581
 C                  4.66872522    2.86904423    1.19086225
 C                  6.58553962    2.92515094   -0.30765716
 C                  6.53991740    4.26127187   -0.33635104
 C                  5.35862176    5.01054896    0.56180401
 C                  4.52670852    4.23015311    1.26618596
 C                  4.83023486   -1.23342871    1.16060991
 C                  5.72721468   -1.89412747    0.41979446
 C                  6.80255006   -0.98960215   -0.46839398
 C                  6.71019846    0.34264997   -0.38366491
 N                  5.82651602   -3.29372113    0.32891351
 Ni                 7.19683254   -3.22877878   -0.71349737
 N                  7.73354781   -1.68465990   -1.25963756
 N                  7.41508590    5.08121061   -1.07094089
 Ni                 6.60458944    6.53035477   -0.61015166
 N                  5.31404893    6.41663077    0.52634642
 H                 -5.04310817    4.54498430    5.65310471
 H                 -9.39279053    1.99654308    5.57620724
 H                 -9.38478786    0.57398080    5.53632318
 H                 -4.99341984   -1.89494189    5.38127981
 H                 -6.51820539    6.89600451    5.75462860
 H                -10.72670105    4.41883678    5.58616785
 H                -10.67580446   -1.87693269    5.44575568
 H                 -6.41641796   -4.26939614    5.34440615
 H                 -3.72207917   -1.10547105    5.28408694
 H                 -3.71755807    3.75701656    5.43051283
 H                 -1.26482205   -0.87169157    5.02255726
 H                 -1.22499501    3.52627240    5.08360276
 H                  1.04677473   -0.88015848    4.03685802
 H                  1.03550191    3.52804021    3.99204979
 H                  3.04672553   -1.03410055    2.56874785
 H                  2.76410945    3.79233078    2.65410276
 H                  7.33764079    2.39320074   -0.85667133
 H                  3.76114770    4.66081682    1.87941045
 H                  4.12237754   -1.76530595    1.76481321
 H                  7.39151037    0.97346564   -0.92035672
 H                  5.29288670   -4.04810341    0.72076337
 H                  8.44077752   -1.39021408   -1.90748243
 H                  8.21545010    4.89177603   -1.64581635
 H                  4.74555892    7.09947224    0.99305355

 1 2 2.0 3 2.0 24 2.0
 2 6 2.0 21 2.0
 3 4 2.0 7 2.0
 4 5 2.0 10 2.0
 5 6 2.0 11 2.0
 6 14 2.0
 7 8 2.0 54 1.0
 8 9 1.0 15 1.5
 9 10 2.0 17 1.5
 10 55 1.0
 11 12 2.0 56 1.0
 12 13 1.0 18 1.5
 13 14 2.0 20 1.5
 14 57 1.0
 15 16 1.0 58 1.0
 16 17 1.0
 17 59 1.0
 18 19 1.0 60 1.0
 19 20 1.0
 20 61 1.0
 21 22 2.0 62 1.0
 22 23 2.0 25 2.0
 23 24 2.0 27 2.0
 24 63 1.0
 25 26 1.0 64 1.0
 26 27 1.0 28 1.0 31 1.0
 27 65 1.0
 28 29 2.0 66 1.0
 29 30 2.0 32 2.0
 30 31 3.0 35 3.0
 31 67 1.0
 32 33 2.0 68 1.0
 33 34 2.0 36 2.0
 34 35 2.0 39 2.0
 35 69 1.0
 36 37 2.0 44 2.0
 37 38 2.0 47 2.0
 38 39 2.0 40 2.0
 39 43 2.0
 40 41 2.0 70 1.0
 41 42 1.0 51 1.5
 42 43 2.0 53 1.5
 43 71 1.0
 44 45 2.0 72 1.0
 45 46 1.0 48 1.5
 46 47 2.0 50 1.5
 47 73 1.0
 48 49 1.0 74 1.0
 49 50 1.0
 50 75 1.0
 51 52 1.0 76 1.0
 52 53 1.0
 53 77 1.0
 54
 55
 56
 57
 58
 59
 60
 61
 62
 63
 64
 65
 66
 67
 68
 69
 70
 71
 72
 73
 74
 75
 76
 77

