# SP Test

[No Title]

  0  1
C 0   -6.624505    0.570758    2.219318
C 0   -6.643341   -0.776129    2.217948
C 0   -7.773856    1.241194    2.066103
C 0   -8.942986    0.564097    2.058829
C 0   -8.925535   -0.783091    2.183976
C 0   -7.763102   -1.463884    2.204309
C 0   -7.805019    2.585193    2.051350
C 0   -8.933072    3.260729    2.165958
C 0  -10.076465    2.592508    2.184581
C 0  -10.086762    1.280048    2.069761
C 0  -10.076621   -1.494314    2.174144
C 0  -10.063779   -2.816021    2.066062
C 0   -8.912378   -3.474368    2.077056
C 0   -7.791562   -2.803838    2.208045
N 0   -9.010271    4.533467    2.252545
Ni 0  -10.655480    4.938214    2.977896
N 0  -11.134183    3.296806    2.265207
N 0  -11.114690   -3.529975    1.957658
Ni 0  -10.617308   -5.149178    1.234305
N 0   -8.978369   -4.749314    2.006273
C 0   -5.444364   -1.446703    2.233092
C 0   -4.266588   -0.774856    2.162499
C 0   -4.338714    0.544710    2.176522
C 0   -5.445024    1.206497    2.266130
N 0   -3.136206   -1.280193    2.127372
Ni 0   -2.032257   -0.064837    1.390118
N 0   -3.239383    1.202599    2.187897
N 0   -0.947158   -1.274023    0.572050
C 0   -0.008539   -0.713062   -0.132948
C 0   -0.063898    0.589934   -0.209163
N 0   -0.948610    1.190339    0.268932
C 0    0.975827   -1.358430   -0.856596
C 0    1.892505   -0.635229   -1.537851
C 0    1.812059    0.724320   -1.446872
C 0    0.796480    1.252394   -0.793123
C 0    2.739319   -1.272742   -2.283259
C 0    3.672089   -0.541643   -2.943007
C 0    3.767389    0.803329   -2.789037
C 0    2.821528    1.426061   -2.042895
C 0    4.652042    1.597437   -3.430147
C 0    4.531362    2.921695   -3.416472
C 0    3.599985    3.516608   -2.688587
C 0    2.807185    2.766806   -1.969541
C 0    2.790006   -2.613695   -2.381623
C 0    3.790807   -3.225957   -3.011231
C 0    4.707014   -2.498700   -3.645700
C 0    4.625847   -1.183388   -3.669902
N 0    3.940785   -4.495959   -3.075285
Ni 0    5.705286   -4.818541   -3.494002
N 0    5.627379   -3.132470   -4.251782
N 0    5.288925    3.707725   -4.077062
Ni 0    4.399700    5.313187   -4.252842
N 0    3.555753    4.796420   -2.683514
Cl 0   -3.187897    0.020917   -0.431958
Cl 0   -0.624292    0.529115    2.920116
H 0   -6.971926    3.398049    2.108886
H 0  -11.167307    0.880807    2.140220
H 0  -11.164290   -1.112382    2.083930
H 0   -6.941799   -3.614191    2.217568
H 0   -8.231709    5.247015    2.212068
H 0  -12.140126    2.978239    2.266750
H 0  -12.123528   -3.212621    1.961311
H 0   -8.205176   -5.469794    2.036564
H 0   -5.236660   -2.594939    2.251553
H 0   -5.234203    2.356331    2.220223
H 0   -3.065474   -2.411613    2.055517
H 0   -3.048168    2.242131    2.146311
H 0   -1.006513   -2.325878    0.639511
H 0   -1.194277    4.162049    1.598038
H 0    0.872985   -2.502233   -0.824362
H 0    0.589618    2.360639   -0.782977
H 0    5.476521    1.270218   -4.163066
H 0    2.187093    3.523338   -1.446423
H 0    2.130577   -3.443327   -1.892528
H 0    5.528599   -0.732755   -4.235087
H 0    3.310057   -5.251101   -2.683545
H 0    6.422738   -2.745027   -4.822616
H 0    6.111590    3.465570   -4.694487
H 0    2.944211    5.486544   -2.166302

