# SP Test

[No Title]

  0  1
C 0   -7.048754    0.571862    1.819732
C 0   -7.031720   -0.785430    1.787597
C 0   -8.158856    1.226620    2.243019
C 0   -9.254361    0.524687    2.631224
C 0   -9.237948   -0.831438    2.597674
C 0   -8.125653   -1.486770    2.177034
C 0   -8.215198    2.578898    2.292262
C 0   -9.301162    3.241266    2.703864
C 0  -10.377458    2.552051    3.083961
C 0  -10.343169    1.216043    3.044519
C 0  -10.309935   -1.568386    2.974540
C 0  -10.312020   -2.905156    2.947786
C 0   -9.219293   -3.548684    2.535708
C 0   -8.149415   -2.840786    2.159041
N 0   -9.420713    4.501271    2.773720
Ni 0  -11.052299    5.060655    3.381881
N 0  -11.360372    3.259519    3.458359
N 0  -11.277986   -3.653497    3.285002
Ni 0  -10.926894   -5.440734    3.119664
N 0   -9.308940   -4.813090    2.542533
C 0   -5.904640   -1.401087    1.357818
C 0   -4.820189   -0.726236    0.963608
C 0   -4.837560    0.607102    0.993973
C 0   -5.938421    1.235245    1.418485
N 0   -3.737236   -1.238411    0.547025
Ni 0   -2.461058   -0.007982    0.070265
N 0   -3.768763    1.165817    0.601488
N 0   -1.151307   -1.175877   -0.469192
C 0   -0.098090   -0.612260   -0.895588
C 0   -0.121927    0.721000   -0.866756
N 0   -1.193786    1.227944   -0.416667
C 0    0.991967   -1.234582   -1.355261
C 0    2.081864   -0.565454   -1.800916
C 0    2.056900    0.791817   -1.772848
C 0    0.944153    1.401479   -1.299404
C 0    3.177603   -1.213850   -2.269206
C 0    4.248024   -0.505933   -2.712794
C 0    4.222538    0.850198   -2.685736
C 0    3.126997    1.499211   -2.214313
C 0    5.268245    1.593157   -3.120273
C 0    5.260617    2.930037   -3.101837
C 0    4.185211    3.567288   -2.637864
C 0    3.141567    2.853432   -2.203468
C 0    3.243071   -2.565901   -2.312073
C 0    4.313131   -3.222239   -2.772262
C 0    5.363895   -2.527130   -3.208960
C 0    5.320964   -1.191231   -3.174982
N 0    4.439532   -4.481670   -2.840236
Ni 0    6.043390   -5.032111   -3.525410
N 0    6.332862   -3.229165   -3.627373
N 0    6.201499    3.684187   -3.492756
Ni 0    5.843828    5.469534   -3.321221
N 0    4.263693    4.832280   -2.656474
Cl 0   -3.251792    0.023727   -1.931307
Cl 0   -1.672217   -0.043802    2.072055
H 0   -7.394360    3.249268    2.005876
H 0  -11.283053    0.758570    3.379984
H 0  -11.260869   -1.150900    3.330361
H 0   -7.312774   -3.475990    1.840048
H 0   -8.648469    5.155655    2.504442
H 0  -12.264673    2.840953    3.781033
H 0  -12.192098   -3.273023    3.626457
H 0   -8.521521   -5.434797    2.241894
H 0   -5.773659   -2.488758    1.288221
H 0   -5.835644    2.327986    1.398711
H 0   -3.593050   -2.273022    0.473826
H 0   -3.651578    2.206091    0.575491
H 0   -1.262232   -2.216682   -0.438449
H 0   -1.341898    2.261865   -0.341459
H 0    0.895860   -2.327832   -1.331352
H 0    0.808619    2.488529   -1.229228
H 0    6.203184    1.180831   -3.521678
H 0    2.317114    3.484147   -1.846218
H 0    2.442868   -3.240634   -1.981076
H 0    6.239780   -0.728653   -3.558317
H 0    3.686892   -5.140314   -2.529298
H 0    7.216650   -2.805598   -3.996779
H 0    7.100008    3.309276   -3.878864
H 0    3.487167    5.449247   -2.319801

